matpower7.1/pruebas/caso24.m
function mpc = caso24()
%% system MVA base
mpc.baseMVA = 100;

%% bus data
%	bus_i	type	Pd	Qd	Gs	Bs	area	Vm	Va	baseKV	zone	Vmax	Vmin
mpc.bus = [
	1	2	108	22	0	0	1	1	0	138	1	1.05	0.95;
	2	2	97	20	0	0	1	1	0	138	1	1.05	0.95;
	3	1	180	37	0	0	1	1	0	138	1	1.05	0.95;
	4	1	74	15	0	0	1	1	0	138	1	1.05	0.95;
	5	1	71	14	0	0	1	1	0	138	1	1.05	0.95;
	6	1	136	28	0	0	2	1	0	138	1	1.05	0.95;
	7	2	125	25	0	0	2	1	0	138	1	1.05	0.95;
	8	1	171	35	0	0	2	1	0	138	1	1.05	0.95;
	9	1	175	36	0	0	1	1	0	138	1	1.05	0.95;
	10	1	195	40	0	0	2	1	0	138	1	1.05	0.95;
	11	1	0	0	0	0	3	1	0	230	1	1.05	0.95;
	12	1	0	0	0	0	3	1	0	230	1	1.05	0.95;
	13	3	265	54	0	0	3	1	0	230	1	1.05	0.95;
	14	2	194	39	0	0	3	1	0	230	1	1.05	0.95;
	15	2	317	64	0	0	4	1	0	230	1	1.05	0.95;
	16	2	100	20	0	0	4	1	0	230	1	1.05	0.95;
	17	1	0	0	0	0	4	1	0	230	1	1.05	0.95;
	18	2	333	68	0	0	4	1	0	230	1	1.05	0.95;
	19	1	181	37	0	0	3	1	0	230	1	1.05	0.95;
	20	1	128	26	0	0	3	1	0	230	1	1.05	0.95;
	21	2	0	0	0	0	4	1	0	230	1	1.05	0.95;
	22	2	0	0	0	0	4	1	0	230	1	1.05	0.95;
	23	2	0	0	0	0	3	1	0	230	1	1.05	0.95;
	24	1	0	0	0	0	4	1	0	230	1	1.05	0.95;
];

%% generator data

%	bus	Pg	Qg	Qmax	Qmin	Vg	mBase	status	Pmax	Pmin	Pc1	Pc2	Qc1min	Qc1max	Qc2min	Qc2max	ramp_agc	ramp_10	ramp_30	ramp_q	apf	%	Unit Code
mpc.gen = [
	1	0	0	10	-10	1.035	100	1	20	0	0	0	0	0	0	0	0	0	0	0	0;	%	U20
	1	0	0	10	-10	1.035	100	1	20	0	0	0	0	0	0	0	0	0	0	0	0;	%	U20
	1	0	0	30	-30	1.035	100	1	76	0	0	0	0	0	0	0	0	0	0	0	0;	%	U76
	1	0	0	30	-30	1.035	100	1	76	0	0	0	0	0	0	0	0	0	0	0	0;	%	U76
	2	0	0	10	-10	1.035	100	1	20	0	0	0	0	0	0	0	0	0	0	0	0;	%	U20
	2	0	0	10	-10	1.035	100	1	20	0	0	0	0	0	0	0	0	0	0	0	0;	%	U20
	2	0	0	30	-30	1.035	100	1	76	0	0	0	0	0	0	0	0	0	0	0	0;	%	U76
	2	0	0	30	-30	1.035	100	1	76	0	0	0	0	0	0	0	0	0	0	0	0;	%	U76
	7	0	0	60	-60	1.025	100	1	100	0	0	0	0	0	0	0	0	0	0	0	0;	%	U100
	7	0	0	60	-60	1.025	100	1	100	0	0	0	0	0	0	0	0	0	0	0	0;	%	U100
	7	0	0	60	-60	1.025	100	1	100	0	0	0	0	0	0	0	0	0	0	0	0;	%	U100
	13	0	0	80	-80	1.02	100	1	197	0	0	0	0	0	0	0	0	0	0	0	0;	%	U197
	13	0	0	80	-80	1.02	100	1	197	0	0	0	0	0	0	0	0	0	0	0	0;	%	U197
	13	0	0	80	-80	1.02	100	1	197	0	0	0	0	0	0	0	0	0	0	0	0;	%	U197
	14	0	0	200	-200	0.98	100	1	0	0	0	0	0	0	0	0	0	0	0	0	0;	%	SynCond
	15	0	0	6	-6	1.014	100	1	12	0	0	0	0	0	0	0	0	0	0	0	0;	%	U12
	15	0	0	6	-6	1.014	100	1	12	0	0	0	0	0	0	0	0	0	0	0	0;	%	U12
	15	0	0	6	-6	1.014	100	1	12	0	0	0	0	0	0	0	0	0	0	0	0;	%	U12
	15	0	0	6	-6	1.014	100	1	12	0	0	0	0	0	0	0	0	0	0	0	0;	%	U12
	15	0	0	6	-6	1.014	100	1	12	0	0	0	0	0	0	0	0	0	0	0	0;	%	U12
	15	0	0	80	-80	1.014	100	1	155	0	0	0	0	0	0	0	0	0	0	0	0;	%	U155
	16	0	0	80	-80	1.017	100	1	155	0	0	0	0	0	0	0	0	0	0	0	0;	
	18	0	0	200	-200	1.05	100	1	400	0	0	0	0	0	0	0	0	0	0	0	0;
	21	0	0	200	-200	1.05	100	1	400	0	0	0	0	0	0	0	0	0	0	0	0;	
	22	0	0	16	-16	1.05	100	1	50	0	0	0	0	0	0	0	0	0	0	0	0;
	22	0	0	16	-16	1.05	100	1	50	0	0	0	0	0	0	0	0	0	0	0	0;	
	22	0	0	16	-16	1.05	100	1	50	0	0	0	0	0	0	0	0	0	0	0	0;	
	22	0	0	16	-16	1.05	100	1	50	0	0	0	0	0	0	0	0	0	0	0	0;	
	22	0	0	16	-16	1.05	100	1	50	0	0	0	0	0	0	0	0	0	0	0	0;	
	22	0	0	16	-16	1.05	100	1	50	0	0	0	0	0	0	0	0	0	0	0	0;	
	23	0	0	80	-80	1.05	100	1	155	0	0	0	0	0	0	0	0	0	0	0	0;	
	23	0	0	80	-80	1.05	100	1	155	0	0	0	0	0	0	0	0	0	0	0	0;	
	23	0	0	150	-150	1.05	100	1	350	0	0	0	0	0	0	0	0	0	0	0	0;	
];


%% branch data
%	fbus	tbus	r	x	b	rateA	rateB	rateC	ratio	angle	status	angmin	angmax
mpc.branch = [
	1	2	0.0026	0.0139	0	175	175	175	0	0	1	-360	360;
	1	3	0.0546	0.2112	0	175	175	175	0	0	1	-360	360;
	1	5	0.0218	0.0845	0	175	175	175	0	0	1	-360	360;
	2	4	0.0328	0.1267	0	175	175	175	0	0	1	-360	360;
	2	6	0.0497	0.192	0	175	175	175	0	0	1	-360	360;
	3	9	0.0308	0.119	0	175	175	175	0	0	1	-360	360;
	3	24	0.0023	0.0839	0	400	400	400	0	0	1	-360	360;
	4	9	0.0268	0.1037	0	175	175	175	0	0	1	-360	360;
	5	10	0.0228	0.0883	0	175	175	175	0	0	1	-360	360;
	6	10	0.0139	0.0605	0	175	175	175	0	0	1	-360	360;
	7	8	0.0159	0.0614	0	175	175	175	0	0	1	-360	360;
	8	9	0.0427	0.1651	0	175	175	175	0	0	1	-360	360;
	8	10	0.0427	0.1651	0	175	175	175	0	0	1	-360	360;
	9	11	0.0023	0.0839	0	400	400	400	0	0	1	-360	360;
	9	12	0.0023	0.0839	0	400	400	400	0	0	1	-360	360;
	10	11	0.0023	0.0839	0	400	400	400	0	0	1	-360	360;
	10	12	0.0023	0.0839	0	400	400	400	0	0	1	-360	360;
	11	13	0.0061	0.0476	0	500	500	500	0	0	1	-360	360;
	11	14	0.0054	0.0418	0	500	500	500	0	0	1	-360	360;
	12	13	0.0061	0.0476	0	500	500	500	0	0	1	-360	360;
	12	23	0.0124	0.0966	0	500	500	500	0	0	1	-360	360;
	13	23	0.0111	0.0865	0	500	500	500	0	0	1	-360	360;
	14	16	0.005	0.0389	0	500	500	500	0	0	1	-360	360;
	15	16	0.0022	0.0173	0	500	500	500	0	0	1	-360	360;
	15	21	0.0063	0.049	0	500	500	500	0	0	1	-360	360;
	15	21	0.0063	0.049	0	500	500	500	0	0	1	-360	360;
	15	24	0.0067	0.0519	0	500	500	500	0	0	1	-360	360;
	16	17	0.0033	0.0259	0	500	500	500	0	0	1	-360	360;
	16	19	0.003	0.0231	0	500	500	500	0	0	1	-360	360;
	17	18	0.0018	0.0144	0	500	500	500	0	0	1	-360	360;
	17	22	0.0135	0.1053	0	500	500	500	0	0	1	-360	360;
	18	21	0.0033	0.0259	0	500	500	500	0	0	1	-360	360;
	18	21	0.0033	0.0259	0	500	500	500	0	0	1	-360	360;
	19	20	0.0051	0.0396	0	500	500	500	0	0	1	-360	360;
	19	20	0.0051	0.0396	0	500	500	500	0	0	1	-360	360;
	20	23	0.0028	0.0216	0	500	500	500	0	0	1	-360	360;
	20	23	0.0028	0.0216	0	500	500	500	0	0	1	-360	360;
	21	22	0.0087	0.0678	0	500	500	500	0	0	1	-360	360;
];

mpc.gencost = [		
 2 0 0 2 27 0 0 0 0 0;
 2 0 0 2 27 0 0 0 0 0;
 2 0 0 2 27 0 0 0 0 0;
 2 0 0 2 27 0 0 0 0 0;
 2 0 0 2 27 0 0 0 0 0;
 2 0 0 2 27 0 0 0 0 0;
 2 0 0 2 27 0 0 0 0 0;
 2 0 0 2 27 0 0 0 0 0;
 2 0 0 2 18 0 0 0 0 0;
 2 0 0 2 18 0 0 0 0 0;
 2 0 0 2 18 0 0 0 0 0;
 2 0 0 2 9 0 0 0 0 0;
 2 0 0 2 9 0 0 0 0 0;
 2 0 0 2 9 0 0 0 0 0;
 2 0 0 2 0 0 0 0 0 0;
 2 0 0 2 24 0 0 0 0 0;
 2 0 0 2 24 0 0 0 0 0;
 2 0 0 2 24 0 0 0 0 0;
 2 0 0 2 24 0 0 0 0 0;
 2 0 0 2 24 0 0 0 0 0;
 2 0 0 2 24 0 0 0 0 0;
 2 0 0 2 34 0 0 0 0 0;
 2 0 0 2 13 0 0 0 0 0;
 2 0 0 2 13 0 0 0 0 0;
 2 0 0 2 18 0 0 0 0 0;
 2 0 0 2 18 0 0 0 0 0;
 2 0 0 2 18 0 0 0 0 0;
 2 0 0 2 18 0 0 0 0 0;
 2 0 0 2 18 0 0 0 0 0;
 2 0 0 2 18 0 0 0 0 0;
 2 0 0 2 8 0 0 0 0 0;
 2 0 0 2 8 0 0 0 0 0;
 2 0 0 2 8 0 0 0 0 0;
];
%%
   mpc.D=[...
1 100 ;
2 300 ;
3 100 ;
4 100 ;
5 100 ;
6 100 ;
7 100 ;
8 100 ;
9 300 ;
10 100;
13 100;
14 100;
15 300;
16 300;
18 100;
19 300;
20 300];

mpc.RD=[1  0 50
        2  0 50
        3  0 50
        4  0 50
        5  0 50 
        6  0 50
        7  0 50
        8  0 50
        9  0 50
        10 0 50
        13 0 50
        14 0 50
        15 0 50
        16 0 50
        18 0 50
        19 0 50
        20 0 50];                
end

